BEGIN NEW DATA CASE
C --------------------------------------------------------
C Generated by ATPDRAW
C A Bonneville Power Administration program
C Programmed by H. K. Høidalen at SEfAS - NORWAY 1994-2002
C --------------------------------------------------------
C  dT  >< Tmax >< Xopt >< Copt >
   1.E-6    .001                
     500       1       1       1       1       0       0       1       0
MODELS
/MODELS
INPUT
  IX0001 {v(XX0001)}
MODEL Ex_DLL
  -- Sample MODELS for an external function
INPUT
  Idmy -- dummy
VAR
  a[1..2]
FUNCTION f1 FOREIGN DLL_FUNCTION {ixarg:2}
INIT
  a[1..2]:=0
ENDINIT
EXEC
C  write("****** In MODELS 'DLL_FUNCTION' at t=",t)
  a[1..2]:=f1(t,stoptime)
  a[1] := sin(a[2])
C  write("a[1]=",a[1]," a[2]=",a[2])
ENDEXEC
ENDMODEL
USE Ex_DLL AS myfunc
INPUT
  Idmy:= IX0001
ENDUSE
RECORD myfunc.a[1] as a1
       myfunc.a[2] as a2
ENDMODELS
C        1         2         3         4         5         6         7         8
C 345678901234567890123456789012345678901234567890123456789012345678901234567890
/BRANCH
C < n 1>< n 2><ref1><ref2>< R  >< L  >< C  >
C < n 1>< n 2><ref1><ref2>< R  >< A  >< B  ><Leng><><>0
  XX0001                    1.E3                                               2
/SWITCH
C < n 1>< n 2>< Tclose ><Top/Tde ><   Ie   ><Vf/CLOP ><  type  >
/SOURCE
C < n 1><>< Ampl.  >< Freq.  ><Phase/T0><   A1   ><   T1   >< TSTART >< TSTOP  >
14XX0001 0      1.E4       60.                                     -1.        1.
/INITIAL
/OUTPUT
BLANK MODELS
BLANK BRANCH
BLANK SWITCH
BLANK SOURCE
BLANK INITIAL
BLANK OUTPUT
BLANK PLOT
BEGIN NEW DATA CASE
BLANK
