BEGIN NEW DATA CASE
$DUMMY, XYZ000
C  dT  >< Tmax >< Xopt >< Copt ><Epsiln>
   5.E-5     10.     60.                
   50000       3       0       1       0       0       0       1       0
/TACS
TACS HYBRID
C        1         2         3         4         5         6         7         8
C 345678901234567890123456789012345678901234567890123456789012345678901234567890
/BRANCH
C < n1 >< n2 ><ref1><ref2>< R  >< L  >< C  >
C < n1 >< n2 ><ref1><ref2>< R  >< A  >< B  ><Leng><><>0
C ----------------------------------------------------------------------
C Nonlinear core representation
C ----------------------------------------------------------------------
98I0051AT0001A            18.17971.764
    4.5446736316    40.257981991
    9.0893472633    56.916488642
    18.178694527    71.764307237
    36.357389053    82.528995648
    72.714778106    89.220587304
    145.42955621    92.990551521
    1163.4364497    96.561595546
           9999.
  I0051AT0001A            19266.
98I0051BT0001B            18.17971.764
    4.5446736316    40.257981991
    9.0893472633    56.916488642
    18.178694527    71.764307237
    36.357389053    82.528995648
    72.714778106    89.220587304
    145.42955621    92.990551521
    1163.4364497    96.561595546
           9999.
  I0051BT0001B            19266.
98I0051CT0001C            18.17971.764
    4.5446736316    40.257981991
    9.0893472633    56.916488642
    18.178694527    71.764307237
    36.357389053    82.528995648
    72.714778106    89.220587304
    145.42955621    92.990551521
    1163.4364497    96.561595546
           9999.
  I0051CT0001C            19266.
98I0051BIX0052            18.17956.916
    4.5446736316    25.393484321
    9.0893472633    40.257981991
    18.178694527    56.916488642
    36.357389053    71.764307237
    72.714778106    82.528995648
    145.42955621    89.220587304
    1163.4364497    96.034319031
           9999.
  I0051BIX0052            9633.1
98I0051CIX0052            18.17956.916
    4.5446736316    25.393484321
    9.0893472633    40.257981991
    18.178694527    56.916488642
    36.357389053    71.764307237
    72.714778106    82.528995648
    145.42955621    89.220587304
    1163.4364497    96.034319031
           9999.
  I0051CIX0052            9633.1
  I0051AIX0052             1.E-6
        IX0052             1.E-6
  T0001AI0051B            0.01326.6667
  T0001BI0051C            0.01326.6667
  T0001C                  0.01326.6667
  I0051A                    1.E7
  I0051B                    1.E7
  I0051C                    1.E7
C ----------------------------------------------------------------------
C [R] matrix
C ----------------------------------------------------------------------
$VINTAGE, 1,
  B22A  B22X               0.0094852544379
  B22B  B22Y               0.0094852544379
  B22C  B22Z               0.0094852544379
  B400A B400X                 1.0452071006
  B400B B400Y                 1.0452071006
  B400C B400Z                 1.0452071006
C ----------------------------------------------------------------------
C [A] matrix
C ----------------------------------------------------------------------
  USE AR
01B22X  B22C                  4616.4119614             0.0
02H0    B400Z                -146.59076787             0.0
                              13.964646183             0.0
03I0051AT0001A               -3077.6079742             0.0
                          -3.878557467E-14             0.0
                              3077.6079742             0.0
04B22Y  B22A                           0.0             0.0
                                       0.0             0.0
                                       0.0             0.0
                              4616.4119614             0.0
05H0    B400X                          0.0             0.0
                                       0.0             0.0
                                       0.0             0.0
                             -146.59076787             0.0
                              13.964646183             0.0
06I0051BT0001B                         0.0             0.0
                                       0.0             0.0
                                       0.0             0.0
                             -3077.6079742             0.0
                          -3.878557467E-14             0.0
                              3077.6079742             0.0
07B22Z  B22B                           0.0             0.0
                                       0.0             0.0
                                       0.0             0.0
                                       0.0             0.0
                                       0.0             0.0
                                       0.0             0.0
                              4616.4119614             0.0
08H0    B400Y                          0.0             0.0
                                       0.0             0.0
                                       0.0             0.0
                                       0.0             0.0
                                       0.0             0.0
                                       0.0             0.0
                             -146.59076787             0.0
                              13.964646183             0.0
09I0051CT0001C                         0.0             0.0
                                       0.0             0.0
                                       0.0             0.0
                                       0.0             0.0
                                       0.0             0.0
                                       0.0             0.0
                             -3077.6079742             0.0
                          -3.878557467E-14             0.0
                              3077.6079742             0.0
  USE RL
C ----------------------------------------------------------------------
C [C] matrix
C ----------------------------------------------------------------------
$UNITS, 0, 0
C First half at the start of the windings
01B22A                                1.E8             0.0   .025182258304
02H0                                   0.0             0.0 -.0023223450216
                                      1.E8             0.0  .0077411500721
03B22B                                 0.0             0.0                
                                       0.0             0.0                
                                      1.E8             0.0   .025182258304
04H0                                   0.0             0.0                
                                       0.0             0.0                
                                       0.0             0.0 -.0023223450216
                                      1.E8             0.0  .0077411500721
05B22C                                 0.0             0.0                
                                       0.0             0.0                
                                       0.0             0.0                
                                       0.0             0.0                
                                      1.E8             0.0   .025182258304
06H0                                   0.0             0.0                
                                       0.0             0.0                
                                       0.0             0.0                
                                       0.0             0.0                
                                       0.0             0.0 -.0023223450216
                                      1.E8             0.0  .0077411500721
C Second half at the end of the windings
01B22C                                1.E8             0.0   .025182258304
02B400C                                0.0             0.0 -.0023223450216
                                      1.E8             0.0  .0077411500721
03B22A                                 0.0             0.0                
                                       0.0             0.0                
                                      1.E8             0.0   .025182258304
04B400A                                0.0             0.0                
                                       0.0             0.0                
                                       0.0             0.0 -.0023223450216
                                      1.E8             0.0  .0077411500721
05B22B                                 0.0             0.0                
                                       0.0             0.0                
                                       0.0             0.0                
                                       0.0             0.0                
                                      1.E8             0.0   .025182258304
06B400B                                0.0             0.0                
                                       0.0             0.0                
                                       0.0             0.0                
                                       0.0             0.0                
                                       0.0             0.0 -.0023223450216
                                      1.E8             0.0  .0077411500721
$UNITS, -1, -1
$VINTAGE, 0,
51X0048AX0047A            .56344    13.75288
52X0048BX0047B            1.6221     26.4452
53X0048CX0047C
  X0048AX0047A             2500.                                               0
  X0048BX0047B             2500.                                               0
  X0048CX0047C             2500.                                               0
  B400C OHLC                            .001                                   0
  XX0003                      2.                                               0
  X0002CX0048C                          .001                                   0
$INSERT, D:\CIMforEMT\ATP\LT400T11.pch
$INSERT, D:\CIMforEMT\ATP\LT400T12.pch
$INSERT, D:\CIMforEMT\ATP\LT400T23.pch
$INSERT, D:\CIMforEMT\ATP\LT400T24.pch
/SWITCH
C < n 1>< n 2>< Tclose ><Top/Tde ><   Ie   ><Vf/CLOP ><  type  >
  H0                                                  MEASURING                0
  B400A OHLA                                          MEASURING                1
  B400B OHLB                                          MEASURING                1
  B400C OHLC         -1.      1.05        5.          RECLOSE                  1
                    1.75      1.E3
                   9999.
  X0049CXX0003        1.       1.2                                             0
  X0002AX0048A                                        MEASURING                0
  X0002BX0048B                                        MEASURING                0
  X0002CX0048C       -1.      1.05        5.          RECLOSE                  0
                    1.55      1.E3
                   9999.
  SM001AB22A                                          MEASURING                0
  SM001BB22B                                          MEASURING                0
  SM001CB22C                                          MEASURING                0
/SOURCE
C < n 1><>< Ampl.  >< Freq.  ><Phase/T0><   A1   ><   T1   >< TSTART >< TSTOP  >
14X0047A  326598.632       60.                                     -1.      100.
14X0047B  326598.632       60.     -120.                           -1.      100.
14X0047C  326598.632       60.     -240.                           -1.      100.
C to convert J from SI: 0.00268 * 2.20462 * 3.28084^2 = 0.063597
C to convert Dsd from SI: 6.02 / 1.3558 = 4.440183
/TACS
$INCLUDE,SYNCMACH.PCH,SM001,SM001 $$
  ,600.0,22.0,-1090.,1170.0,1920.0,18411.998 $$
  ,-3.25,0.0045,0.14,1.65,1.59,0.25 $$
  ,0.46,0.2,0.2,4.5,0.55,0.04 $$
  ,0.09,0.0802,900.0,65.0,0.14,0.0268 $$
  ,60.02 $$
  ,.04435,22.55,1.76,1090.0 $$
  ,20.0,5.0,5.1,0.5,1.2 $$
  ,0.038,4.4,4.54,4.0,4.5 $$
  ,1.025,40.0,1.0E-9,10.0,1.0,0.4 $$
  ,0.025,0.0,1.0 $$
  ,2.0,2.0E-9,1.E-18,0.15,0.05,10.0 $$
  ,1.0E-9,-0.2,0.2
/TACS
33SM001V
33SM001P
33SM001W
33SM001F
/OUTPUT
  SM001ASM001BSM001C  
BLANK TACS
BLANK BRANCH
BLANK SWITCH
BLANK SOURCE
BLANK OUTPUT
BLANK PLOT
BEGIN NEW DATA CASE
BLANK
