BEGIN NEW DATA CASE
$INCLUDE, WECC240.prm
C  dT  >< Tmax >< Xopt >< Copt ><Epsiln>
__DELTAT____TMAX    60.0
   65535       1       1       1       1       0       0       1
C        1         2         3         4         5         6         7         8
C 345678901234567890123456789012345678901234567890123456789012345678901234567890
/TACS
TACS HYBRID
/BRANCH
C < n1 >< n2 ><ref1><ref2>< R  >< A  >< B  ><Leng><><>0
C < n1 >< n2 ><ref1><ref2>< R  >< L  >< C  >
$INCLUDE, WECC240_net.atp
C FAULTA                   0.001                                               1
C FAULTB                   0.001                                               1
  FAULTC                   0.001                                               1
C FALTBC_FLT_C             0.001                                               1
/SWITCH
C < n 1>< n 2>< Tclose ><Top/Tde ><   Ie   ><Vf/CLOP ><  type  >
C _FLT_AFAULTA_TFAULTA___TOPENA___
C _FLT_BFAULTB_TFAULTB___TOPENB___
  _FLT_CFAULTC_TFAULTC___TOPENC___
C _FLT_BFALTBC_TFAULTBC__TOPENBC__
/TACS
33DR001A
33DR001B
33DR001C
33DR001X
33DR001Y
33DR001Z
33DR001I
33DR001V
33DR001W
33DR002A
33DR002B
33DR002C
33DR002X
33DR002Y
33DR002Z
33DR002I
33DR002V
33DR002W
C 
33SM001V
33SM002V
33SM003V
33SM004V
33SM005V
33SM006V
33SM007V
33SM008V
33SM009V
33SM010V
33SM011V
33SM012V
33SM013V
33SM014V
33SM015V
33SM016V
33SM017V
33SM018V
33SM019V
33SM020V
33SM021V
33SM022V
33SM023V
33SM024V
33SM025V
33SM026V
33SM027V
33SM028V
33SM029V
33SM030V
33SM031V
33SM032V
33SM033V
33SM034V
33SM035V
33SM036V
33SM037V
33SM038V
33SM039V
33SM040V
33SM041V
33SM042V
33SM043V
33SM044V
33SM045V
33SM046V
33SM047V
33SM048V
33SM049V
33SM050V
33SM051V
33SM052V
33SM053V
33SM054V
33SM055V
33SM056V
33SM057V
33SM058V
33SM059V
33SM060V
33SM061V
33SM062V
33SM063V
33SM064V
33SM065V
33SM066V
33SM067V
33SM068V
33SM069V
33SM070V
33SM071V
33SM072V
33SM073V
33SM074V
33SM075V
33SM076V
33SM077V
33SM078V
33SM079V
33SM080V
33SM081V
33SM082V
33SM083V
33SM084V
33SM085V
33SM086V
33SM087V
C 
33SM001P
33SM002P
33SM003P
33SM004P
33SM005P
33SM006P
33SM007P
33SM008P
33SM009P
33SM010P
33SM011P
33SM012P
33SM013P
33SM014P
33SM015P
33SM016P
33SM017P
33SM018P
33SM019P
33SM020P
33SM021P
33SM022P
33SM023P
33SM024P
33SM025P
33SM026P
33SM027P
33SM028P
33SM029P
33SM030P
33SM031P
33SM032P
33SM033P
33SM034P
33SM035P
33SM036P
33SM037P
33SM038P
33SM039P
33SM040P
33SM041P
33SM042P
33SM043P
33SM044P
33SM045P
33SM046P
33SM047P
33SM048P
33SM049P
33SM050P
33SM051P
33SM052P
33SM053P
33SM054P
33SM055P
33SM056P
33SM057P
33SM058P
33SM059P
33SM060P
33SM061P
33SM062P
33SM063P
33SM064P
33SM065P
33SM066P
33SM067P
33SM068P
33SM069P
33SM070P
33SM071P
33SM072P
33SM073P
33SM074P
33SM075P
33SM076P
33SM077P
33SM078P
33SM079P
33SM080P
33SM081P
33SM082P
33SM083P
33SM084P
33SM085P
33SM086P
33SM087P
C 
33SM001W
33SM002W
33SM003W
33SM004W
33SM005W
33SM006W
33SM007W
33SM008W
33SM009W
33SM010W
33SM011W
33SM012W
33SM013W
33SM014W
33SM015W
33SM016W
33SM017W
33SM018W
33SM019W
33SM020W
33SM021W
33SM022W
33SM023W
33SM024W
33SM025W
33SM026W
33SM027W
33SM028W
33SM029W
33SM030W
33SM031W
33SM032W
33SM033W
33SM034W
33SM035W
33SM036W
33SM037W
33SM038W
33SM039W
33SM040W
33SM041W
33SM042W
33SM043W
33SM044W
33SM045W
33SM046W
33SM047W
33SM048W
33SM049W
33SM050W
33SM051W
33SM052W
33SM053W
33SM054W
33SM055W
33SM056W
33SM057W
33SM058W
33SM059W
33SM060W
33SM061W
33SM062W
33SM063W
33SM064W
33SM065W
33SM066W
33SM067W
33SM068W
33SM069W
33SM070W
33SM071W
33SM072W
33SM073W
33SM074W
33SM075W
33SM076W
33SM077W
33SM078W
33SM079W
33SM080W
33SM081W
33SM082W
33SM083W
33SM084W
33SM085W
33SM086W
33SM087W
C 
33SM001F
33SM002F
33SM003F
33SM004F
33SM005F
33SM006F
33SM007F
33SM008F
33SM009F
33SM010F
33SM011F
33SM012F
33SM013F
33SM014F
33SM015F
33SM016F
33SM017F
33SM018F
33SM019F
33SM020F
33SM021F
33SM022F
33SM023F
33SM024F
33SM025F
33SM026F
33SM027F
33SM028F
33SM029F
33SM030F
33SM031F
33SM032F
33SM033F
33SM034F
33SM035F
33SM036F
33SM037F
33SM038F
33SM039F
33SM040F
33SM041F
33SM042F
33SM043F
33SM044F
33SM045F
33SM046F
33SM047F
33SM048F
33SM049F
33SM050F
33SM051F
33SM052F
33SM053F
33SM054F
33SM055F
33SM056F
33SM057F
33SM058F
33SM059F
33SM060F
33SM061F
33SM062F
33SM063F
33SM064F
33SM065F
33SM066F
33SM067F
33SM068F
33SM069F
33SM070F
33SM071F
33SM072F
33SM073F
33SM074F
33SM075F
33SM076F
33SM077F
33SM078F
33SM079F
33SM080F
33SM081F
33SM082F
33SM083F
33SM084F
33SM085F
33SM086F
33SM087F
C
C for IBR
C
33IBR01F
33IBR01P
33IBR01Q
33IBR02F
33IBR02P
33IBR02Q
33IBR03F
33IBR03P
33IBR03Q
33IBR04F
33IBR04P
33IBR04Q
33IBR05F
33IBR05P
33IBR05Q
33IBR06F
33IBR06P
33IBR06Q
33IBR07F
33IBR07P
33IBR07Q
33IBR08F
33IBR08P
33IBR08Q
33IBR09F
33IBR09P
33IBR09Q
33IBR10F
33IBR10P
33IBR10Q
33IBR11F
33IBR11P
33IBR11Q
33IBR12F
33IBR12P
33IBR12Q
33IBR13F
33IBR13P
33IBR13Q
33IBR14F
33IBR14P
33IBR14Q
33IBR15F
33IBR15P
33IBR15Q
33IBR16F
33IBR16P
33IBR16Q
33IBR17F
33IBR17P
33IBR17Q
33IBR18F
33IBR18P
33IBR18Q
33IBR19F
33IBR19P
33IBR19Q
33IBR20F
33IBR20P
33IBR20Q
33IBR21F
33IBR21P
33IBR21Q
33IBR22F
33IBR22P
33IBR22Q
33IBR23F
33IBR23P
33IBR23Q
33IBR24F
33IBR24P
33IBR24Q
33IBR25F
33IBR25P
33IBR25Q
33IBR26F
33IBR26P
33IBR26Q
33IBR27F
33IBR27P
33IBR27Q
33IBR28F
33IBR28P
33IBR28Q
33IBR29F
33IBR29P
33IBR29Q
33IBR30F
33IBR30P
33IBR30Q
33IBR31F
33IBR31P
33IBR31Q
33IBR32F
33IBR32P
33IBR32Q
33IBR33F
33IBR33P
33IBR33Q
33IBR34F
33IBR34P
33IBR34Q
33IBR35F
33IBR35P
33IBR35Q
C
/OUTPUT
  SBUS_ASBUS_BSBUS_C
BLANK TACS
BLANK BRANCH
BLANK SWITCH
BLANK SOURCE
BLANK OUTPUT
BLANK PLOT
BEGIN NEW DATA CASE
BLANK
