// WECC 240 SYSTEM, V0.2, DEVELOPED BY NREL. CONTACT: HAOYU.YUAN@NREL.GOV
// This is a reduced WECC 240-bus power system model reflecting WECC generation resource mix in 2018 and representing the summer peak load. It was developed by NREL and contains no CEII.
// Reference: H. Yuan, R. S. Biswas, J. Tan and Y. Zhang, "Developing a Reduced 240-Bus WECC Dynamic Model for Frequency Response Study of High Renewable Integration," IEEE/PES Transmission and Distribution Conference and Exposition (T&D), Chicago, IL, USA, 2020.
/ 
   1032 'GENROU' C     6.0000      0.50000       1.0000      0.50000E-01
          2.4100       0.0000       1.4000       1.3500      0.30000
         0.60000      0.20000      0.10000      0.30000E-01  0.40000      /
   1032 'SEXS'   C    0.10000       10.000       100.00      0.10000
          0.0000       3.0000      /
   1032 'TGOV1'  C    0.80000E-01   2.0000       1.0000       0.0000
          3.0000       15.000      0.40000      /
  10321 'GENROU' G     6.0000      0.50000       1.0000      0.50000E-01
          2.4100       0.0000       1.4000       1.3500      0.30000
         0.60000      0.20000      0.10000      0.30000E-01  0.40000      /
  10321 'SEXS'   G    0.10000       10.000       100.00      0.10000
          0.0000       3.0000      /
  10321 'GAST'   G    0.80000E-01  0.30000      0.30000       3.0000
          1.0000       2.0000       1.0000       0.0000       0.0000      /
   1034 'GENROU' C     6.0000      0.50000       1.0000      0.50000E-01
          2.4100       0.0000       1.4000       1.3500      0.30000
         0.60000      0.20000      0.10000      0.30000E-01  0.40000      /
   1034 'SEXS'   C    0.10000       10.000       100.00      0.10000
          0.0000       3.0000      /
   1034 'TGOV1'  C    0.80000E-01   2.0000       1.0000       0.0000
          3.0000       15.000      0.40000      /
  10341 'GENROU' G     6.0000      0.50000       1.0000      0.50000E-01
          2.4100       0.0000       1.4000       1.3500      0.30000
         0.60000      0.20000      0.10000      0.30000E-01  0.40000      /
  10341 'SEXS'   G    0.10000       10.000       100.00      0.10000
          0.0000       3.0000      /
  10341 'GAST'   G    0.80000E-01  0.30000      0.30000       3.0000
          1.0000       2.0000       1.0000       0.0000       0.0000      /
   1131 'GENROU' C     6.0000      0.50000       1.0000      0.50000E-01
          4.2600       0.0000       1.4000       1.3500      0.30000
         0.60000      0.20000      0.10000      0.30000E-01  0.40000      /
   1131 'SEXS'   C    0.10000       10.000       100.00      0.10000
          0.0000       3.0000      /
   1131 'TGOV1'  C    0.80000E-01   2.0000       1.0000       0.0000
          3.0000       15.000      0.40000      /
  11311 'GENROU' G     6.0000      0.50000       1.0000      0.50000E-01
          4.2600       0.0000       1.4000       1.3500      0.30000
         0.60000      0.20000      0.10000      0.30000E-01  0.40000      /
  11311 'SEXS'   G    0.10000       10.000       100.00      0.10000
          0.0000       3.0000      /
  11311 'GAST'   G    0.80000E-01  0.30000      0.30000       3.0000
          1.0000       2.0000       1.0000       0.0000       0.0000      /
   1232 'GENROU' C     6.0000      0.50000       1.0000      0.50000E-01
          4.2600       0.0000       1.4000       1.3500      0.30000
         0.60000      0.20000      0.10000      0.30000E-01  0.40000      /
   1232 'SEXS'   C    0.10000       10.000       100.00      0.10000
          0.0000       3.0000      /
   1232 'TGOV1'  C    0.80000E-01   2.0000       1.0000       0.0000
          3.0000       15.000      0.40000      /
  12321 'GENROU' H     6.0000      0.50000       1.0000      0.50000E-01
          4.2600       0.0000       1.4000       1.3500      0.30000
         0.60000      0.20000      0.10000      0.30000E-01  0.40000      /
  12321 'SEXS'   H    0.10000       10.000       100.00      0.10000
          0.0000       3.0000      /
  12321 'HYGOV'  H    0.50000E-01  0.75000E-01   12.000      0.50000
          20.500      0.10000       1.0000       0.0000       15.000
          1.5000       0.0000      0.80000E-01  /
   1331 'GENROU' G     6.0000      0.50000       1.0000      0.50000E-01
          4.2600       0.0000       1.4000       1.3500      0.30000
         0.60000      0.20000      0.10000      0.30000E-01  0.40000      /
   1331 'SEXS'   G    0.10000       10.000       100.00      0.10000
          0.0000       3.0000      /
   1331 'GAST'   G    0.80000E-01  0.30000      0.30000       3.0000
          1.0000       2.0000       1.0000       0.0000       0.0000      /
  13311 'GENROU' H     6.0000      0.50000       1.0000      0.50000E-01
          4.2600       0.0000       1.4000       1.3500      0.30000
         0.60000      0.20000      0.10000      0.30000E-01  0.40000      /
  13311 'SEXS'   H    0.10000       10.000       100.00      0.10000
          0.0000       3.0000      /
  13311 'HYGOV'  H    0.50000E-01  0.75000E-01   12.000      0.50000
          20.500      0.10000       1.0000       0.0000       15.000
          1.5000       0.0000      0.80000E-01  /
   1333 'GENROU' C     6.0000      0.50000       1.0000      0.50000E-01
          2.7900       0.0000       1.4000       1.3500      0.30000
         0.60000      0.20000      0.10000      0.30000E-01  0.40000      /
   1333 'SEXS'   C    0.10000       10.000       100.00      0.10000
          0.0000       3.0000      /
   1333 'TGOV1'  C    0.80000E-01   2.0000       1.0000       0.0000
          3.0000       15.000      0.40000      /
   13331 'GENROU' G     6.0000      0.50000       1.0000      0.50000E-01
          2.7900       0.0000       1.4000       1.3500      0.30000
         0.60000      0.20000      0.10000      0.30000E-01  0.40000      /
   13331 'SEXS'   G    0.10000       10.000       100.00      0.10000
          0.0000       3.0000      /
   13331 'GAST'   G    0.80000E-01  0.30000      0.30000       3.0000
          1.0000       2.0000       1.0000       0.0000       0.0000      /
   1431 'GENROU' G     6.0000      0.50000       1.0000      0.50000E-01
          4.2600       0.0000       1.4000       1.3500      0.30000
         0.60000      0.20000      0.10000      0.30000E-01  0.40000      /
   1431 'SEXS'   G    0.10000       10.000       100.00      0.10000
          0.0000       3.0000      /
   1431 'GAST'   G    0.80000E-01  0.30000      0.30000       3.0000
          1.0000       2.0000       1.0000       0.0000       0.0000      /
   14311 'GENROU' N     6.0000      0.50000       1.0000      0.50000E-01
          4.2600       0.0000       1.4000       1.3500      0.30000
         0.60000      0.20000      0.10000      0.30000E-01  0.40000      /
   14311 'SEXS'   N    0.10000       10.000       100.00      0.10000
          0.0000       3.0000      /
   14311 'TGOV1'  N    0.80000E-01   2.0000       1.0000       0.0000
          3.0000       15.000      0.40000      /
   14312 'GENROU' S     6.0000      0.50000       1.0000      0.50000E-01
          4.2600       0.0000       1.4000       1.3500      0.30000
         0.60000      0.20000      0.10000      0.30000E-01  0.40000      /
   14312 'SEXS'   S    0.10000       10.000       100.00      0.10000
          0.0000       3.0000      /
   14312 'TGOV1'  S    0.80000E-01   2.0000       1.0000       0.0000
          3.0000       15.000      0.40000      /
   2030 'GENROU' E     6.0000      0.50000       1.0000      0.50000E-01
          4.5300       0.0000       1.4000       1.3500      0.30000
         0.60000      0.20000      0.10000      0.30000E-01  0.40000      /
   2030 'SEXS'   E    0.10000       10.000       100.00      0.10000
          0.0000       3.0000      /
   2030 'TGOV1'  E    0.80000E-01   2.0000       1.0000       0.0000
          3.0000       15.000      0.40000      /
   20301 'GENROU' G     6.0000      0.50000       1.0000      0.50000E-01
          4.5300       0.0000       1.4000       1.3500      0.30000
         0.60000      0.20000      0.10000      0.30000E-01  0.40000      /
   20301 'SEXS'   G    0.10000       10.000       100.00      0.10000
          0.0000       3.0000      /
   20301 'GAST'   G    0.80000E-01  0.30000      0.30000       3.0000
          1.0000       2.0000       1.0000       0.0000       0.0000      /
   2130 'GENROU' E     6.0000      0.50000       1.0000      0.50000E-01
          3.7400       0.0000       1.4000       1.3500      0.30000
         0.60000      0.20000      0.10000      0.30000E-01  0.40000      /
   2130 'SEXS'   E    0.10000       10.000       100.00      0.10000
          0.0000       3.0000      /
   2130 'TGOV1'  E    0.80000E-01   2.0000       1.0000       0.0000
          3.0000       15.000      0.40000      /
   21303 'GENROU' S     6.0000      0.50000       1.0000      0.50000E-01
          3.7400       0.0000       1.4000       1.3500      0.30000
         0.60000      0.20000      0.10000      0.30000E-01  0.40000      /
   21303 'SEXS'   S    0.10000       10.000       100.00      0.10000
          0.0000       3.0000      /
   21303 'GAST'   S    0.80000E-01  0.30000      0.30000       3.0000
          1.0000       2.0000       1.0000       0.0000       0.0000      /
   21302 'GENROU' H     6.0000      0.50000       1.0000      0.50000E-01
          3.7400       0.0000       1.4000       1.3500      0.30000
         0.60000      0.20000      0.10000      0.30000E-01  0.40000      /
   21302 'SEXS'   H    0.10000       10.000       100.00      0.10000
          0.0000       3.0000      /
   21302 'HYGOV'  H    0.50000E-01  0.75000E-01   12.000      0.50000
          20.500      0.10000       1.0000       0.0000       15.000
          1.5000       0.0000      0.80000E-01  /
   2233 'GENROU' DG    6.0000      0.50000       1.0000      0.50000E-01
          3.3000       0.0000       1.4000       1.3500      0.30000
         0.60000      0.20000      0.10000      0.30000E-01  0.40000      /
   2233 'SEXS'   DG   0.10000       10.000       100.00      0.10000
          0.0000       3.0000      /
   2233 'GAST'   DG   0.80000E-01  0.30000      0.30000       3.0000
          1.0000       2.0000       1.0000       0.0000       0.0000      /
   22331 'GENROU' EG    6.0000      0.50000       1.0000      0.50000E-01
          3.3000       0.0000       1.4000       1.3500      0.30000
         0.60000      0.20000      0.10000      0.30000E-01  0.40000      /
   22331 'SEXS'   EG   0.10000       10.000       100.00      0.10000
          0.0000       3.0000      /
   22331 'GAST'   EG   0.80000E-01  0.30000      0.30000       3.0000
          1.0000       2.0000       1.0000       0.0000       0.0000      /
   22332 'GENROU' TG    6.0000      0.50000       1.0000      0.50000E-01
          3.3000       0.0000       1.4000       1.3500      0.30000
         0.60000      0.20000      0.10000      0.30000E-01  0.40000      /
   22332 'SEXS'   TG   0.10000       10.000       100.00      0.10000
          0.0000       3.0000      /
   22332 'GAST'   TG   0.80000E-01  0.30000      0.30000       3.0000
          1.0000       2.0000       1.0000       0.0000       0.0000      /
   2438 'GENROU' EG    6.0000      0.50000       1.0000      0.50000E-01
          3.5400       0.0000       1.4000       1.3500      0.30000
         0.60000      0.20000      0.10000      0.30000E-01  0.40000      /
   2438 'SEXS'   EG   0.10000       10.000       100.00      0.10000
          0.0000       3.0000      /
   2438 'GAST'   EG   0.80000E-01  0.30000      0.30000       3.0000
          1.0000       2.0000       1.0000       0.0000       0.0000      /
   24381 'GENROU' ND    6.0000      0.50000       1.0000      0.50000E-01
          3.5400       0.0000       1.4000       1.3500      0.30000
         0.60000      0.20000      0.10000      0.30000E-01  0.40000      /
   24381 'SEXS'   ND   0.10000       10.000       100.00      0.10000
          0.0000       3.0000      /
   24381 'TGOV1'  ND   0.80000E-01   2.0000       1.0000       0.0000
          3.0000       15.000      0.40000      /
   24383 'GENROU' S     6.0000      0.50000       1.0000      0.50000E-01
          3.5400       0.0000       1.4000       1.3500      0.30000
         0.60000      0.20000      0.10000      0.30000E-01  0.40000      /
   24383 'SEXS'   S    0.10000       10.000       100.00      0.10000
          0.0000       3.0000      /
   24383 'GAST'   S    0.80000E-01  0.30000      0.30000       3.0000
          1.0000       2.0000       1.0000       0.0000       0.0000      /
   24384 'GENROU' SG    6.0000      0.50000       1.0000      0.50000E-01
          3.5400       0.0000       1.4000       1.3500      0.30000
         0.60000      0.20000      0.10000      0.30000E-01  0.40000      /
   24384 'SEXS'   SG   0.10000       10.000       100.00      0.10000
          0.0000       3.0000      /
   24384 'GAST'   SG   0.80000E-01  0.30000      0.30000       3.0000
          1.0000       2.0000       1.0000       0.0000       0.0000      /
   24385 'GENROU' SH    6.0000      0.50000       1.0000      0.50000E-01
          3.5400       0.0000       1.4000       1.3500      0.30000
         0.60000      0.20000      0.10000      0.30000E-01  0.40000      /
   24385 'SEXS'   SH   0.10000       10.000       100.00      0.10000
          0.0000       3.0000      /
   24385 'TGOV1'  SH   0.80000E-01   2.0000       1.0000       0.0000
          3.0000       15.000      0.40000      /
   24387 'GENROU' WG    6.0000      0.50000       1.0000      0.50000E-01
          3.5400       0.0000       1.4000       1.3500      0.30000
         0.60000      0.20000      0.10000      0.30000E-01  0.40000      /
   24387 'SEXS'   WG   0.10000       10.000       100.00      0.10000
          0.0000       3.0000      /
   24387 'GAST'   WG   0.80000E-01  0.30000      0.30000       3.0000
          1.0000       2.0000       1.0000       0.0000       0.0000      /
   2630 'GENROU' G     6.0000      0.50000       1.0000      0.50000E-01
          4.7500       0.0000       1.4000       1.3500      0.30000
         0.60000      0.20000      0.10000      0.30000E-01  0.40000      /
   2630 'SEXS'   G    0.10000       10.000       100.00      0.10000
          0.0000       3.0000      /
   2630 'GAST'   G    0.80000E-01  0.30000      0.30000       3.0000
          1.0000       2.0000       1.0000       0.0000       0.0000      /
   2634 'GENROU' C     6.0000      0.50000       1.0000      0.50000E-01
          2.8700       0.0000       1.4000       1.3500      0.30000
         0.60000      0.20000      0.10000      0.30000E-01  0.40000      /
   2634 'SEXS'   C    0.10000       10.000       100.00      0.10000
          0.0000       3.0000      /
   2634 'TGOV1'  C    0.80000E-01   2.0000       1.0000       0.0000
          3.0000       15.000      0.40000      /
   2637 'GENROU' H     6.0000      0.50000       1.0000      0.50000E-01
          4.7500       0.0000       1.4000       1.3500      0.30000
         0.60000      0.20000      0.10000      0.30000E-01  0.40000      /
   2637 'SEXS'   H    0.10000       10.000       100.00      0.10000
          0.0000       3.0000      /
   2637 'HYGOV'  H    0.50000E-01  0.75000E-01   12.000      0.50000
          20.500      0.10000       1.0000       0.0000       15.000
          1.5000       0.0000      0.80000E-01  /
   2638 'GENROU' H     6.0000      0.50000       1.0000      0.50000E-01
          4.7500       0.0000       1.4000       1.3500      0.30000
         0.60000      0.20000      0.10000      0.30000E-01  0.40000      /
   2638 'SEXS'   H    0.10000       10.000       100.00      0.10000
          0.0000       3.0000      /
   2638 'HYGOV'  H    0.50000E-01  0.75000E-01   12.000      0.50000
          20.500      0.10000       1.0000       0.0000       15.000
          1.5000       0.0000      0.80000E-01  /
   3133 'GENROU' NG    6.0000      0.50000       1.0000      0.50000E-01
          3.6600       0.0000       1.4000       1.3500      0.30000
         0.60000      0.20000      0.10000      0.30000E-01  0.40000      /
   3133 'SEXS'   NG   0.10000       10.000       100.00      0.10000
          0.0000       3.0000      /
   3133 'GAST'   NG   0.80000E-01  0.30000      0.30000       3.0000
          1.0000       2.0000       1.0000       0.0000       0.0000      /
   31331 'GENROU' SC    6.0000      0.50000       1.0000      0.50000E-01
          3.6600       0.0000       1.4000       1.3500      0.30000
         0.60000      0.20000      0.10000      0.30000E-01  0.40000      /
   31331 'SEXS'   SC   0.10000       10.000       100.00      0.10000
          0.0000       3.0000      /
   31331 'TGOV1'  SC   0.80000E-01   2.0000       1.0000       0.0000
          3.0000       15.000      0.40000      /
   3135 'GENROU' MG    6.0000      0.50000       1.0000      0.50000E-01
          3.6600       0.0000       1.4000       1.3500      0.30000
         0.60000      0.20000      0.10000      0.30000E-01  0.40000      /
   3135 'SEXS'   MG   0.10000       10.000       100.00      0.10000
          0.0000       3.0000      /
   3135 'GAST'   MG   0.80000E-01  0.30000      0.30000       3.0000
          1.0000       2.0000       1.0000       0.0000       0.0000      /
   31351 'GENROU' NG    6.0000      0.50000       1.0000      0.50000E-01
          3.6600       0.0000       1.4000       1.3500      0.30000
         0.60000      0.20000      0.10000      0.30000E-01  0.40000      /
   31351 'SEXS'   NG   0.10000       10.000       100.00      0.10000
          0.0000       3.0000      /
   31351 'GAST'   NG   0.80000E-01  0.30000      0.30000       3.0000
          1.0000       2.0000       1.0000       0.0000       0.0000      /
   3234 'GENROU' DG    6.0000      0.50000       1.0000      0.50000E-01
          3.6600       0.0000       1.4000       1.3500      0.30000
         0.60000      0.20000      0.10000      0.30000E-01  0.40000      /
   3234 'SEXS'   DG   0.10000       10.000       100.00      0.10000
          0.0000       3.0000      /
   3234 'GAST'   DG   0.80000E-01  0.30000      0.30000       3.0000
          1.0000       2.0000       1.0000       0.0000       0.0000      /
   32341 'GENROU' MG    6.0000      0.50000       1.0000      0.50000E-01
          3.6600       0.0000       1.4000       1.3500      0.30000
         0.60000      0.20000      0.10000      0.30000E-01  0.40000      /
   32341 'SEXS'   MG   0.10000       10.000       100.00      0.10000
          0.0000       3.0000      /
   32341 'GAST'   MG   0.80000E-01  0.30000      0.30000       3.0000
          1.0000       2.0000       1.0000       0.0000       0.0000      /
   32342 'GENROU' NG    6.0000      0.50000       1.0000      0.50000E-01
          3.6600       0.0000       1.4000       1.3500      0.30000
         0.60000      0.20000      0.10000      0.30000E-01  0.40000      /
   32342 'SEXS'   NG   0.10000       10.000       100.00      0.10000
          0.0000       3.0000      /
   32342 'GAST'   NG   0.80000E-01  0.30000      0.30000       3.0000
          1.0000       2.0000       1.0000       0.0000       0.0000      /
   3333 'GENROU' CG    6.0000      0.50000       1.0000      0.50000E-01
          3.6600       0.0000       1.4000       1.3500      0.30000
         0.60000      0.20000      0.10000      0.30000E-01  0.40000      /
   3333 'SEXS'   CG   0.10000       10.000       100.00      0.10000
          0.0000       3.0000      /
   3333 'GAST'   CG   0.80000E-01  0.30000      0.30000       3.0000
          1.0000       2.0000       1.0000       0.0000       0.0000      /
   33331 'GENROU' NG    6.0000      0.50000       1.0000      0.50000E-01
          3.6600       0.0000       1.4000       1.3500      0.30000
         0.60000      0.20000      0.10000      0.30000E-01  0.40000      /
   33331 'SEXS'   NG   0.10000       10.000       100.00      0.10000
          0.0000       3.0000      /
   33331 'GAST'   NG   0.80000E-01  0.30000      0.30000       3.0000
          1.0000       2.0000       1.0000       0.0000       0.0000      /
   3432 'GENROU' NP    6.0000      0.50000       1.0000      0.50000E-01
          3.6600       0.0000       1.4000       1.3500      0.30000
         0.60000      0.20000      0.10000      0.30000E-01  0.40000      /
   3432 'SEXS'   NP   0.10000       10.000       100.00      0.10000
          0.0000       3.0000      /
   3432 'TGOV1'  NP   0.80000E-01   2.0000       1.0000       0.0000
          3.0000       15.000      0.40000      /
   3433 'GENROU' NG    6.0000      0.50000       1.0000      0.50000E-01
          3.6600       0.0000       1.4000       1.3500      0.30000
         0.60000      0.20000      0.10000      0.30000E-01  0.40000      /
   3433 'SEXS'   NG   0.10000       10.000       100.00      0.10000
          0.0000       3.0000      /
   3433 'GAST'   NG   0.80000E-01  0.30000      0.30000       3.0000
          1.0000       2.0000       1.0000       0.0000       0.0000      /
   3531 'GENROU' CE    6.0000      0.50000       1.0000      0.50000E-01
          3.6600       0.0000       1.4000       1.3500      0.30000
         0.60000      0.20000      0.10000      0.30000E-01  0.40000      /
   3531 'SEXS'   CE   0.10000       10.000       100.00      0.10000
          0.0000       3.0000      /
   3531 'TGOV1'  CE   0.80000E-01   2.0000       1.0000       0.0000
          3.0000       15.000      0.40000      /
   35311 'GENROU' NE    6.0000      0.50000       1.0000      0.50000E-01
          3.6600       0.0000       1.4000       1.3500      0.30000
         0.60000      0.20000      0.10000      0.30000E-01  0.40000      /
   35311 'SEXS'   NE   0.10000       10.000       100.00      0.10000
          0.0000       3.0000      /
   35311 'TGOV1'  NE   0.80000E-01   2.0000       1.0000       0.0000
          3.0000       15.000      0.40000      /
   35312 'GENROU' NH    6.0000      0.50000       1.0000      0.50000E-01
          3.6600       0.0000       1.4000       1.3500      0.30000
         0.60000      0.20000      0.10000      0.30000E-01  0.40000      /
   35312 'SEXS'   NH   0.10000       10.000       100.00      0.10000
          0.0000       3.0000      /
   35312 'TGOV1'  NH   0.80000E-01   2.0000       1.0000       0.0000
          3.0000       15.000      0.40000      /
   3631 'GENROU' NB    6.0000      0.50000       1.0000      0.50000E-01
          3.6600       0.0000       1.4000       1.3500      0.30000
         0.60000      0.20000      0.10000      0.30000E-01  0.40000      /
   3631 'SEXS'   NB   0.10000       10.000       100.00      0.10000
          0.0000       3.0000      /
   3631 'TGOV1'  NB   0.80000E-01   2.0000       1.0000       0.0000
          3.0000       15.000      0.40000      /
   36311 'GENROU' NG    6.0000      0.50000       1.0000      0.50000E-01
          3.6600       0.0000       1.4000       1.3500      0.30000
         0.60000      0.20000      0.10000      0.30000E-01  0.40000      /
   36311 'SEXS'   NG   0.10000       10.000       100.00      0.10000
          0.0000       3.0000      /
   36311 'GAST'   NG   0.80000E-01  0.30000      0.30000       3.0000
          1.0000       2.0000       1.0000       0.0000       0.0000      /
   3731 'GENROU' NH    6.0000      0.50000       1.0000      0.50000E-01
          2.7900       0.0000       1.4000       1.3500      0.30000
         0.60000      0.20000      0.10000      0.30000E-01  0.40000      /
   3731 'SEXS'   NH   0.10000       10.000       100.00      0.10000
          0.0000       3.0000      /
   3731  'TGOV1'  NH   0.80000E-01   2.0000       1.0000       0.0000
          3.0000       15.000      0.40000      /
   3831 'GENROU' NN    6.0000      0.50000       1.0000      0.50000E-01
          3.6600       0.0000       1.4000       1.3500      0.30000
         0.60000      0.20000      0.10000      0.30000E-01  0.40000      /
   3831 'SEXS'   NN   0.10000       10.000       100.00      0.10000
          0.0000       3.0000      /
   3831 'TGOV1'  NN   0.80000E-01   2.0000       1.0000       0.0000
          3.0000       15.000      0.40000      /
   3835 'GENROU' ND    6.0000      0.50000       1.0000      0.50000E-01
          3.6600       0.0000       1.4000       1.3500      0.30000
         0.60000      0.20000      0.10000      0.30000E-01  0.40000      /
   3835 'SEXS'   ND   0.10000       10.000       100.00      0.10000
          0.0000       3.0000      /
   3835 'TGOV1'  ND   0.80000E-01   2.0000       1.0000       0.0000
          3.0000       15.000      0.40000      /
   38352 'GENROU' S     6.0000      0.50000       1.0000      0.50000E-01
          3.6600       0.0000       1.4000       1.3500      0.30000
         0.60000      0.20000      0.10000      0.30000E-01  0.40000      /
   38352 'SEXS'   S    0.10000       10.000       100.00      0.10000
          0.0000       3.0000      /
   38352 'GAST'   S    0.80000E-01  0.30000      0.30000       3.0000
          1.0000       2.0000       1.0000       0.0000       0.0000      /
   3836 'GENROU' DG    6.0000      0.50000       1.0000      0.50000E-01
          3.6600       0.0000       1.4000       1.3500      0.30000
         0.60000      0.20000      0.10000      0.30000E-01  0.40000      /
   3836 'SEXS'   DG   0.10000       10.000       100.00      0.10000
          0.0000       3.0000      /
   3836 'GAST'   DG   0.80000E-01  0.30000      0.30000       3.0000
          1.0000       2.0000       1.0000       0.0000       0.0000      /
   3931 'GENROU' NB    6.0000      0.50000       1.0000      0.50000E-01
          3.6600       0.0000       1.4000       1.3500      0.30000
         0.60000      0.20000      0.10000      0.30000E-01  0.40000      /
   3931 'SEXS'   NB   0.10000       10.000       100.00      0.10000
          0.0000       3.0000      /
   3931 'TGOV1'  NB   0.80000E-01   2.0000       1.0000       0.0000
          3.0000       15.000      0.40000      /
   39311 'GENROU' NH    6.0000      0.50000       1.0000      0.50000E-01
          3.6600       0.0000       1.4000       1.3500      0.30000
         0.60000      0.20000      0.10000      0.30000E-01  0.40000      /
   39311 'SEXS'   NH   0.10000       10.000       100.00      0.10000
          0.0000       3.0000      /
   39311 'TGOV1'  NH   0.80000E-01   2.0000       1.0000       0.0000
          3.0000       15.000      0.40000      /
   39335 'GENROU' NW    6.0000      0.50000       1.0000      0.50000E-01
          3.6600       0.0000       1.4000       1.3500      0.30000
         0.60000      0.20000      0.10000      0.30000E-01  0.40000      /
   39335 'SEXS'   NW   0.10000       10.000       100.00      0.10000
          0.0000       3.0000      /
   39335 'GAST'   NW   0.80000E-01  0.30000      0.30000       3.0000
          1.0000       2.0000       1.0000       0.0000       0.0000      /
   39336 'GENROU' S     6.0000      0.50000       1.0000      0.50000E-01
          3.6600       0.0000       1.4000       1.3500      0.30000
         0.60000      0.20000      0.10000      0.30000E-01  0.40000      /
   39336 'SEXS'   S    0.10000       10.000       100.00      0.10000
          0.0000       3.0000      /
   39336 'TGOV1'  S    0.80000E-01   2.0000       1.0000       0.0000
          3.0000       15.000      0.40000      /
   39332 'GENROU' ND    6.0000      0.50000       1.0000      0.50000E-01
          3.6600       0.0000       1.4000       1.3500      0.30000
         0.60000      0.20000      0.10000      0.30000E-01  0.40000      /
   39332 'SEXS'   ND   0.10000       10.000       100.00      0.10000
          0.0000       3.0000      /
   39332 'TGOV1'  ND   0.80000E-01   2.0000       1.0000       0.0000
          3.0000       15.000      0.40000      /
   39333 'GENROU' NG    6.0000      0.50000       1.0000      0.50000E-01
          3.6600       0.0000       1.4000       1.3500      0.30000
         0.60000      0.20000      0.10000      0.30000E-01  0.40000      /
   39333 'SEXS'   NG   0.10000       10.000       100.00      0.10000
          0.0000       3.0000      /
   39333 'GAST'   NG   0.80000E-01  0.30000      0.30000       3.0000
          1.0000       2.0000       1.0000       0.0000       0.0000      /
   39334 'GENROU' NH    6.0000      0.50000       1.0000      0.50000E-01
          3.6600       0.0000       1.4000       1.3500      0.30000
         0.60000      0.20000      0.10000      0.30000E-01  0.40000      /
   39334 'SEXS'   NH   0.10000       10.000       100.00      0.10000
          0.0000       3.0000      /
   39334 'TGOV1'  NH   0.80000E-01   2.0000       1.0000       0.0000
          3.0000       15.000      0.40000      /
   4031 'GENROU' G     6.0000      0.50000       1.0000      0.50000E-01
          3.8400       0.0000       1.4000       1.3500      0.30000
         0.60000      0.20000      0.10000      0.30000E-01  0.40000      /
   4031 'SEXS'   G    0.10000       10.000       100.00      0.10000
          0.0000       3.0000      /
   4031 'GAST'   G    0.80000E-01  0.30000      0.30000       3.0000
          1.0000       2.0000       1.0000       0.0000       0.0000      /
   40313 'GENROU' W     6.0000      0.50000       1.0000      0.50000E-01
          3.8400       0.0000       1.4000       1.3500      0.30000
         0.60000      0.20000      0.10000      0.30000E-01  0.40000      /
   40313 'SEXS'   W    0.10000       10.000       100.00      0.10000
          0.0000       3.0000      /
   40313 'TGOV1'  W    0.80000E-01   2.0000       1.0000       0.0000
          3.0000       15.000      0.40000      /
   40353 'GENROU' W     6.0000      0.50000       1.0000      0.50000E-01
          3.8400       0.0000       1.4000       1.3500      0.30000
         0.60000      0.20000      0.10000      0.30000E-01  0.40000      /
   40353 'SEXS'   W    0.10000       10.000       100.00      0.10000